import testing ; 
#using gfortran ;

alias linkcommon : ../DataBase//database ../ModelBase//modelbase ../Global//global ..//boost_core ..//boost_iostreams ..//boost_thread ..//boost_chrono ..//boost_date_time ..//netcdf ..//netcdf_c++ ; 

lib mt : MTData.cpp TipperData.cpp EMData.cpp
         ReadWriteX3D.cpp ReadWriteImpedances.cpp ReadWriteTitanData.cpp
         ThreeDMTModel.cpp X3DModel.cpp ModEMModel.cpp 
         MTEquations.cpp X3DFieldCalculator.cpp
         MT3DCalculator.cpp X3DMTCalculator.cpp
         X3DTipperCalculator.cpp
         ModEMCalculator.cpp
         OneDMTCalculator.cpp InterpolateField.cpp
         MTCovar.cpp MTUtils.cpp X3DFreqFunctions.cpp
         linkcommon   ;
#: <hpx>on:<linkflags>"`pkg-config --libs hpx_component`"

# unit-test 2DMT_test : test_Tarits2DMT.cpp   mt linkcommon ../Inversion//inversion   ;
# unit-test X3Dcalc_test : test_X3DCalculator.cpp  B_epol1.for B_hpol.for MT2DForward.cpp ..//gfortran mt ../Global//global linkcommon ../Inversion//inversion  ;
# unit-test Tippercalc_test : test_X3DTipperCalculator.cpp   mt ../Global//global linkcommon ../Inversion//inversion  ;
unit-test MTtransform_test : test_transform.cpp mt  ../ModelBase//modelbase   ;
unit-test RWX3D_test : test_ReadWriteX3D.cpp   mt linkcommon ../Global//global ../Inversion//inversion  ;
unit-test InterpolateFields_test : test_InterpolateFields.cpp   mt linkcommon ../Global//global ../Inversion//inversion  ;
# unit-test X3DObjective_test : test_X3DObjective.cpp mt linkcommon ../Inversion//inversion ../Global//global ;
# unit-test X3DTipperObjective_test : test_X3DTipperObjective.cpp mt linkcommon ../Inversion//inversion ../Global//global ;
unit-test OneDMTCalculator_test : test_OneDMTCalculator.cpp mt linkcommon ../Inversion//inversion ../Global//global ;
unit-test ReadWriteImpedances_test : test_ReadWriteImpedances.cpp mt linkcommon ../Inversion//inversion ../Global//global ;
unit-test MTCovar_test : test_MTCovar.cpp mt  ../ModelBase//modelbase ../Global//global  ;


exe mtforward : mtforward.cpp mt linkcommon ;
exe makemtmesh : makemtmesh.cpp mt ../Gravity//gravity linkcommon ;
exe refinemt : refinemt.cpp mt ../Gravity//gravity ../Magnetics//magnetics ../Tomo//tomo linkcommon ;
exe mtinv : mtinv.cpp  linkcommon mt ../Joint//joint ../Joint//setup ;

install $(TOP)/bin : mtforward makemtmesh mtinv :
    <install-dependencies>on <install-type>EXE
    <install-type>LIB <dll-path>$(TOP)/bin
    ;