import testing ; 
using gfortran ;

alias linkcommon : ../ModelBase//modelbase  ..//boost_filesystem ..//boost_system ..//boost_log ..//boost_iostreams ..//boost_thread ..//boost_chrono ..//boost_date_time ; 

lib mt : ReadWriteX3D.cpp ReadWriteImpedances.cpp
         ThreeDMTModel.cpp X3DModel.cpp MTEquations.cpp 
         MT3DCalculator.cpp X3DMTCalculator.cpp
         OneDMTCalculator.cpp InterpolateField.cpp
         MTCovar.cpp MTUtils.cpp X3DFreqFunctions.cpp
         linkcommon ;


# switched off unit-test 2DMT_test : test_Tarits2DMT.cpp   mt linkcommon ../Inversion//inversion   ;
unit-test RWX3D_test : test_ReadWriteX3D.cpp   mt linkcommon ../Inversion//inversion  ;
unit-test X3Dcalc_test : test_X3DCalculator.cpp   mt linkcommon ../Inversion//inversion  ;
unit-test InterpolateFields_test : test_InterpolateFields.cpp   mt linkcommon ../Inversion//inversion  ;
unit-test X3DObjective_test : test_X3DObjective.cpp mt linkcommon ../Inversion//inversion  ;
unit-test OneDMTCalculator_test : test_OneDMTCalculator.cpp mt linkcommon ../Inversion//inversion  ;
unit-test ReadWriteImpedances_test : test_ReadWriteImpedances.cpp mt linkcommon ../Inversion//inversion  ;
unit-test MTCovar_test : test_MTCovar.cpp mt  ..//ModelBase   ;

exe mtforward : mtforward.cpp mt linkcommon  ..//boost_program_options ;
exe makemtmesh : makemtmesh.cpp mt linkcommon ..//boost_program_options  ;
exe refinemt : refinemt.cpp mt ../Gravity//gravity ../Magnetics//magnetics ../Tomo//tomo linkcommon ..//netcdf ..//netcdf_c++ ;
