import testing ; 
#using gfortran ;

alias linkcommon : ../ModelBase//modelbase ../Global//global ..//boost_core ..//boost_iostreams ..//boost_thread ..//boost_chrono ..//boost_date_time ..//netcdf ..//netcdf_c++ ; 

lib mt : ReadWriteX3D.cpp ReadWriteImpedances.cpp
         ThreeDMTModel.cpp X3DModel.cpp ModEMModel.cpp 
         MTEquations.cpp 
         MT3DCalculator.cpp X3DMTCalculator.cpp
         ModEMCalculator.cpp
         OneDMTCalculator.cpp InterpolateField.cpp
         MTCovar.cpp MTUtils.cpp X3DFreqFunctions.cpp
         linkcommon   ;
#: <hpx>on:<linkflags>"`pkg-config --libs hpx_component`"

# switched off unit-test 2DMT_test : test_Tarits2DMT.cpp   mt linkcommon ../Inversion//inversion   ;
#unit-test X3Dcalc_test : test_X3DCalculator.cpp  B_epol1.for B_hpol.for MT2DForward.cpp ..//gfortran mt ../Global//global linkcommon ../Inversion//inversion  ;
unit-test MTtransform_test : test_transform.cpp mt  ..//ModelBase   ;
unit-test RWX3D_test : test_ReadWriteX3D.cpp   mt linkcommon ../Global//global ../Inversion//inversion  ;
unit-test InterpolateFields_test : test_InterpolateFields.cpp   mt linkcommon ../Global//global ../Inversion//inversion  ;
unit-test X3DObjective_test : test_X3DObjective.cpp mt linkcommon ../Inversion//inversion ../Global//global ;
unit-test OneDMTCalculator_test : test_OneDMTCalculator.cpp mt linkcommon ../Inversion//inversion ../Global//global ;
unit-test ReadWriteImpedances_test : test_ReadWriteImpedances.cpp mt linkcommon ../Inversion//inversion ../Global//global ;
unit-test MTCovar_test : test_MTCovar.cpp mt  ..//ModelBase ../Global//global  ;


exe mtforward : mtforward.cpp mt linkcommon ;
exe makemtmesh : makemtmesh.cpp mt linkcommon ;
exe refinemt : refinemt.cpp mt ../Gravity//gravity ../Magnetics//magnetics ../Tomo//tomo linkcommon ..//netcdf ..//netcdf_c++ ;
exe mtinv : mtinv.cpp  linkcommon mt ../Joint//joint ../Joint//setup  ;